!-Generator IDFEditor 1.50
!-Option SortedOrder UseSpecialFormat

!-NOTE: All comments with '!-' are ignored by the IDFEditor and are generated automatically.
!-      Use '!' comments if they need to be retained when using the IDFEditor.


!-   ===========  ALL OBJECTS IN CLASS: VERSION ===========

Version,8.9;

!-   ===========  ALL OBJECTS IN CLASS: SIMULATIONCONTROL ===========


SimulationControl,
    Yes,                     !- Do Zone Sizing Calculation
    Yes,                     !- Do System Sizing Calculation
    Yes,                     !- Do Plant Sizing Calculation
    No,                      !- Run Simulation for Sizing Periods
    Yes;                     !- Run Simulation for Weather File Run Periods


!-   ===========  ALL OBJECTS IN CLASS: BUILDING ===========

Building,
    -LargeHotel-ASHRAE 169-2006-4A created: 2018-06-19 08:56:30 -0600,  !- Name
    0,                       !- North Axis {deg}
    City,                    !- Terrain
    0.04,                    !- Loads Convergence Tolerance Value
    0.2,                     !- Temperature Convergence Tolerance Value {deltaC}
    FullInteriorAndExterior, !- Solar Distribution
    25,                      !- Maximum Number of Warmup Days
    6;                       !- Minimum Number of Warmup Days


!-   ===========  ALL OBJECTS IN CLASS: SURFACECONVECTIONALGORITHM:INSIDE ===========

SurfaceConvectionAlgorithm:Inside,TARP;

!-   ===========  ALL OBJECTS IN CLASS: SURFACECONVECTIONALGORITHM:OUTSIDE ===========

SurfaceConvectionAlgorithm:Outside,TARP;

!-   ===========  ALL OBJECTS IN CLASS: HEATBALANCEALGORITHM ===========

HeatBalanceAlgorithm,ConductionTransferFunction,200;

!-   ===========  ALL OBJECTS IN CLASS: TIMESTEP ===========

Timestep,12;

!-   ===========  ALL OBJECTS IN CLASS: CONVERGENCELIMITS ===========


ConvergenceLimits,
    1,                       !- Minimum System Timestep {minutes}
    20;                      !- Maximum HVAC Iterations


!-   ===========  ALL OBJECTS IN CLASS: SITE:LOCATION ===========

Site:Location,
    Baltimore Blt Washngtn IntL,  !- Name
    39.17,                   !- Latitude {deg}
    -76.68,                  !- Longitude {deg}
    -5,                      !- Time Zone {hr}
    45;                      !- Elevation {m}


!-   ===========  ALL OBJECTS IN CLASS: SIZINGPERIOD:DESIGNDAY ===========

SizingPeriod:DesignDay,
    Baltimore Blt Washngtn IntL Ann Clg .4% Condns DB=>MWB,  !- Name
    7,                       !- Month
    21,                      !- Day of Month
    SummerDesignDay,         !- Day Type
    34.4,                    !- Maximum Dry-Bulb Temperature {C}
    10.4,                    !- Daily Dry-Bulb Temperature Range {deltaC}
    DefaultMultipliers,      !- Dry-Bulb Temperature Range Modifier Type
    ,                        !- Dry-Bulb Temperature Range Modifier Day Schedule Name
    Wetbulb,                 !- Humidity Condition Type
    23.9,                    !- Wetbulb or DewPoint at Maximum Dry-Bulb {C}
    ,                        !- Humidity Condition Day Schedule Name
    ,                        !- Humidity Ratio at Maximum Dry-Bulb {kgWater/kgDryAir}
    ,                        !- Enthalpy at Maximum Dry-Bulb {J/kg}
    ,                        !- Daily Wet-Bulb Temperature Range {deltaC}
    100786,                  !- Barometric Pressure {Pa}
    4.6,                     !- Wind Speed {m/s}
    280,                     !- Wind Direction {deg}
    No,                      !- Rain Indicator
    No,                      !- Snow Indicator
    No,                      !- Daylight Saving Time Indicator
    ASHRAETau,               !- Solar Model Indicator
    ,                        !- Beam Solar Day Schedule Name
    ,                        !- Diffuse Solar Day Schedule Name
    0.552,                   !- ASHRAE Clear Sky Optical Depth for Beam Irradiance (taub) {dimensionless}
    1.769;                   !- ASHRAE Clear Sky Optical Depth for Diffuse Irradiance (taud) {dimensionless}

SizingPeriod:DesignDay,
    Baltimore Blt Washngtn IntL Ann Htg 99.6% Condns DB,  !- Name
    1,                       !- Month
    21,                      !- Day of Month
    WinterDesignDay,         !- Day Type
    -10.6,                   !- Maximum Dry-Bulb Temperature {C}
    0,                       !- Daily Dry-Bulb Temperature Range {deltaC}
    DefaultMultipliers,      !- Dry-Bulb Temperature Range Modifier Type
    ,                        !- Dry-Bulb Temperature Range Modifier Day Schedule Name
    Wetbulb,                 !- Humidity Condition Type
    -10.6,                   !- Wetbulb or DewPoint at Maximum Dry-Bulb {C}
    ,                        !- Humidity Condition Day Schedule Name
    ,                        !- Humidity Ratio at Maximum Dry-Bulb {kgWater/kgDryAir}
    ,                        !- Enthalpy at Maximum Dry-Bulb {J/kg}
    ,                        !- Daily Wet-Bulb Temperature Range {deltaC}
    100786,                  !- Barometric Pressure {Pa}
    3.9,                     !- Wind Speed {m/s}
    290,                     !- Wind Direction {deg}
    No,                      !- Rain Indicator
    No,                      !- Snow Indicator
    No,                      !- Daylight Saving Time Indicator
    ASHRAEClearSky,          !- Solar Model Indicator
    ,                        !- Beam Solar Day Schedule Name
    ,                        !- Diffuse Solar Day Schedule Name
    ,                        !- ASHRAE Clear Sky Optical Depth for Beam Irradiance (taub) {dimensionless}
    ,                        !- ASHRAE Clear Sky Optical Depth for Diffuse Irradiance (taud) {dimensionless}
    0;                       !- Sky Clearness


!-   ===========  ALL OBJECTS IN CLASS: RUNPERIOD ===========

RunPeriod,
    Run Period 1,            !- Name
    8,                       !- Begin Month
    1,                       !- Begin Day of Month
    8,                       !- End Month
    31,                      !- End Day of Month
    Sunday,                  !- Day of Week for Start Day
    No,                      !- Use Weather File Holidays and Special Days
    No,                      !- Use Weather File Daylight Saving Period
    No,                      !- Apply Weekend Holiday Rule
    Yes,                     !- Use Weather File Rain Indicators
    Yes,                     !- Use Weather File Snow Indicators
    1;                       !- Number of Times Runperiod to be Repeated


!-   ===========  ALL OBJECTS IN CLASS: SITE:GROUNDTEMPERATURE:BUILDINGSURFACE ===========

Site:GroundTemperature:BuildingSurface,20.62,20.59,20.64,20.69,20.77,23.05,23.41,23.48,23.48,21.19,20.87,20.71;

!-   ===========  ALL OBJECTS IN CLASS: SITE:WATERMAINSTEMPERATURE ===========


Site:WaterMainsTemperature,
    Correlation,             !- Calculation Method
    ,                        !- Temperature Schedule Name
    13.15,                   !- Annual Average Outdoor Air Temperature {C}
    25.8;                    !- Maximum Difference In Monthly Average Outdoor Air Temperatures {deltaC}


!-   ===========  ALL OBJECTS IN CLASS: SCHEDULETYPELIMITS ===========

ScheduleTypeLimits,
    Banquet_Flr_6 ZN Thermostat Schedule Type Limits,  !- Name
    0,                       !- Lower Limit Value
    4,                       !- Upper Limit Value
    DISCRETE;                !- Numeric Type

ScheduleTypeLimits,
    Temperature,             !- Name
    ,                        !- Lower Limit Value
    ,                        !- Upper Limit Value
    Continuous,              !- Numeric Type
    temperature;             !- Unit Type

ScheduleTypeLimits,
    OnOff,                   !- Name
    0,                       !- Lower Limit Value
    1,                       !- Upper Limit Value
    Discrete,                !- Numeric Type
    availability;            !- Unit Type

ScheduleTypeLimits,
    Fractional,              !- Name
    0,                       !- Lower Limit Value
    1,                       !- Upper Limit Value
    Continuous;              !- Numeric Type

ScheduleTypeLimits,
    Basement ZN Thermostat Schedule Type Limits,  !- Name
    0,                       !- Lower Limit Value
    4,                       !- Upper Limit Value
    DISCRETE;                !- Numeric Type

ScheduleTypeLimits,
    Cafe_Flr_1 ZN Thermostat Schedule Type Limits,  !- Name
    0,                       !- Lower Limit Value
    4,                       !- Upper Limit Value
    DISCRETE;                !- Numeric Type

ScheduleTypeLimits,
    Corridor_Flr_3 ZN Thermostat Schedule Type Limits,  !- Name
    0,                       !- Lower Limit Value
    4,                       !- Upper Limit Value
    DISCRETE;                !- Numeric Type

ScheduleTypeLimits,
    Corridor_Flr_6 ZN Thermostat Schedule Type Limits,  !- Name
    0,                       !- Lower Limit Value
    4,                       !- Upper Limit Value
    DISCRETE;                !- Numeric Type

ScheduleTypeLimits,
    Dining_Flr_6 ZN Thermostat Schedule Type Limits,  !- Name
    0,                       !- Lower Limit Value
    4,                       !- Upper Limit Value
    DISCRETE;                !- Numeric Type

ScheduleTypeLimits,
    Kitchen_Flr_6 ZN Thermostat Schedule Type Limits,  !- Name
    0,                       !- Lower Limit Value
    4,                       !- Upper Limit Value
    DISCRETE;                !- Numeric Type

ScheduleTypeLimits,
    Dimensionless,           !- Name
    0,                       !- Lower Limit Value
    1,                       !- Upper Limit Value
    Continuous,              !- Numeric Type
    dimensionless;           !- Unit Type

ScheduleTypeLimits,
    Laundry_Flr_1 ZN Thermostat Schedule Type Limits,  !- Name
    0,                       !- Lower Limit Value
    4,                       !- Upper Limit Value
    DISCRETE;                !- Numeric Type

ScheduleTypeLimits,
    Lobby_Flr_1 ZN Thermostat Schedule Type Limits,  !- Name
    0,                       !- Lower Limit Value
    4,                       !- Upper Limit Value
    DISCRETE;                !- Numeric Type

ScheduleTypeLimits,
    Mech_Flr_1 ZN Thermostat Schedule Type Limits,  !- Name
    0,                       !- Lower Limit Value
    4,                       !- Upper Limit Value
    DISCRETE;                !- Numeric Type

ScheduleTypeLimits,
    Retail_1_Flr_1 ZN Thermostat Schedule Type Limits,  !- Name
    0,                       !- Lower Limit Value
    4,                       !- Upper Limit Value
    DISCRETE;                !- Numeric Type

ScheduleTypeLimits,
    Retail_2_Flr_1 ZN Thermostat Schedule Type Limits,  !- Name
    0,                       !- Lower Limit Value
    4,                       !- Upper Limit Value
    DISCRETE;                !- Numeric Type

ScheduleTypeLimits,
    Room_1_Flr_3 ZN Thermostat Schedule Type Limits,  !- Name
    0,                       !- Lower Limit Value
    4,                       !- Upper Limit Value
    DISCRETE;                !- Numeric Type

ScheduleTypeLimits,
    Room_1_Flr_6 ZN Thermostat Schedule Type Limits,  !- Name
    0,                       !- Lower Limit Value
    4,                       !- Upper Limit Value
    DISCRETE;                !- Numeric Type

ScheduleTypeLimits,
    Room_2_Flr_3 ZN Thermostat Schedule Type Limits,  !- Name
    0,                       !- Lower Limit Value
    4,                       !- Upper Limit Value
    DISCRETE;                !- Numeric Type

ScheduleTypeLimits,
    Room_2_Flr_6 ZN Thermostat Schedule Type Limits,  !- Name
    0,                       !- Lower Limit Value
    4,                       !- Upper Limit Value
    DISCRETE;                !- Numeric Type

ScheduleTypeLimits,
    Room_3_Mult19_Flr_3 ZN Thermostat Schedule Type Limits,  !- Name
    0,                       !- Lower Limit Value
    4,                       !- Upper Limit Value
    DISCRETE;                !- Numeric Type

ScheduleTypeLimits,
    Room_3_Mult9_Flr_6 ZN Thermostat Schedule Type Limits,  !- Name
    0,                       !- Lower Limit Value
    4,                       !- Upper Limit Value
    DISCRETE;                !- Numeric Type

ScheduleTypeLimits,
    Room_4_Mult19_Flr_3 ZN Thermostat Schedule Type Limits,  !- Name
    0,                       !- Lower Limit Value
    4,                       !- Upper Limit Value
    DISCRETE;                !- Numeric Type

ScheduleTypeLimits,
    Room_5_Flr_3 ZN Thermostat Schedule Type Limits,  !- Name
    0,                       !- Lower Limit Value
    4,                       !- Upper Limit Value
    DISCRETE;                !- Numeric Type

ScheduleTypeLimits,
    Room_6_Flr_3 ZN Thermostat Schedule Type Limits,  !- Name
    0,                       !- Lower Limit Value
    4,                       !- Upper Limit Value
    DISCRETE;                !- Numeric Type

ScheduleTypeLimits,
    Storage_Flr_1 ZN Thermostat Schedule Type Limits,  !- Name
    0,                       !- Lower Limit Value
    4,                       !- Upper Limit Value
    DISCRETE;                !- Numeric Type

ScheduleTypeLimits,
    ActivityLevel,           !- Name
    0,                       !- Lower Limit Value
    ,                        !- Upper Limit Value
    Continuous,              !- Numeric Type
    activitylevel;           !- Unit Type

ScheduleTypeLimits,
    Any Number;              !- Name

ScheduleTypeLimits,
    Temperature Schedule Type Limits,  !- Name
    0,                       !- Lower Limit Value
    100,                     !- Upper Limit Value
    Continuous,              !- Numeric Type
    temperature;             !- Unit Type

ScheduleTypeLimits,
    Temperature Schedule Type Limits 1,  !- Name
    0,                       !- Lower Limit Value
    100,                     !- Upper Limit Value
    Continuous,              !- Numeric Type
    temperature;             !- Unit Type

ScheduleTypeLimits,
    Temperature Schedule Type Limits 2,  !- Name
    0,                       !- Lower Limit Value
    100,                     !- Upper Limit Value
    Continuous,              !- Numeric Type
    temperature;             !- Unit Type

ScheduleTypeLimits,
    Temperature Schedule Type Limits 3,  !- Name
    0,                       !- Lower Limit Value
    100,                     !- Upper Limit Value
    Continuous,              !- Numeric Type
    temperature;             !- Unit Type

ScheduleTypeLimits,
    Temperature Schedule Type Limits 4,  !- Name
    0,                       !- Lower Limit Value
    100,                     !- Upper Limit Value
    Continuous,              !- Numeric Type
    temperature;             !- Unit Type

ScheduleTypeLimits,
    Velocity,                !- Name
    0,                       !- Lower Limit Value
    ,                        !- Upper Limit Value
    Continuous,              !- Numeric Type
    velocity;                !- Unit Type


!-   ===========  ALL OBJECTS IN CLASS: SCHEDULE:DAY:INTERVAL ===========

Schedule:Day:Interval,
    HotelLarge HTGSETP_SCH Default,  !- Name
    Temperature,             !- Schedule Type Limits Name
    No,                      !- Interpolate to Timestep
    24:00,                   !- Time 1 {hh:mm}
    21;                      !- Value Until Time 1

Schedule:Day:Interval,
    HotelLarge HTGSETP_SCH Summer Design Day,  !- Name
    Temperature,             !- Schedule Type Limits Name
    No,                      !- Interpolate to Timestep
    24:00,                   !- Time 1 {hh:mm}
    21;                      !- Value Until Time 1

Schedule:Day:Interval,
    HotelLarge HTGSETP_SCH Winter Design Day,  !- Name
    Temperature,             !- Schedule Type Limits Name
    No,                      !- Interpolate to Timestep
    24:00,                   !- Time 1 {hh:mm}
    21;                      !- Value Until Time 1

Schedule:Day:Interval,
    HotelLarge CLGSETP_SCH Default,  !- Name
    Temperature,             !- Schedule Type Limits Name
    No,                      !- Interpolate to Timestep
    24:00,                   !- Time 1 {hh:mm}
    24;                      !- Value Until Time 1

Schedule:Day:Interval,
    HotelLarge CLGSETP_SCH Summer Design Day,  !- Name
    Temperature,             !- Schedule Type Limits Name
    No,                      !- Interpolate to Timestep
    24:00,                   !- Time 1 {hh:mm}
    24;                      !- Value Until Time 1

Schedule:Day:Interval,
    HotelLarge CLGSETP_SCH Winter Design Day,  !- Name
    Temperature,             !- Schedule Type Limits Name
    No,                      !- Interpolate to Timestep
    24:00,                   !- Time 1 {hh:mm}
    24;                      !- Value Until Time 1

Schedule:Day:Interval,
    HotelLarge Kitchen_Exhaust_SCH Default,  !- Name
    OnOff,                   !- Schedule Type Limits Name
    No,                      !- Interpolate to Timestep
    07:00,                   !- Time 1 {hh:mm}
    0,                       !- Value Until Time 1
    24:00,                   !- Time 2 {hh:mm}
    1;                       !- Value Until Time 2

Schedule:Day:Interval,
    HotelLarge Kitchen_Exhaust_SCH Summer Design Day,  !- Name
    OnOff,                   !- Schedule Type Limits Name
    No,                      !- Interpolate to Timestep
    07:00,                   !- Time 1 {hh:mm}
    0,                       !- Value Until Time 1
    24:00,                   !- Time 2 {hh:mm}
    1;                       !- Value Until Time 2

Schedule:Day:Interval,
    HotelLarge Kitchen_Exhaust_SCH Winter Design Day,  !- Name
    OnOff,                   !- Schedule Type Limits Name
    No,                      !- Interpolate to Timestep
    07:00,                   !- Time 1 {hh:mm}
    0,                       !- Value Until Time 1
    24:00,                   !- Time 2 {hh:mm}
    1;                       !- Value Until Time 2

Schedule:Day:Interval,
    HotelLarge HVACOperationSchd Default,  !- Name
    Fractional,              !- Schedule Type Limits Name
    No,                      !- Interpolate to Timestep
    24:00,                   !- Time 1 {hh:mm}
    1;                       !- Value Until Time 1

Schedule:Day:Interval,
    HotelLarge HVACOperationSchd Summer Design Day,  !- Name
    Fractional,              !- Schedule Type Limits Name
    No,                      !- Interpolate to Timestep
    24:00,                   !- Time 1 {hh:mm}
    1;                       !- Value Until Time 1

Schedule:Day:Interval,
    HotelLarge HVACOperationSchd Winter Design Day,  !- Name
    Fractional,              !- Schedule Type Limits Name
    No,                      !- Interpolate to Timestep
    24:00,                   !- Time 1 {hh:mm}
    1;                       !- Value Until Time 1

Schedule:Day:Interval,
    HotelLarge Kitchen Exhaust Fan Balanced Exhaust Fraction Schedule Default,  !- Name
    Dimensionless,           !- Schedule Type Limits Name
    No,                      !- Interpolate to Timestep
    07:00,                   !- Time 1 {hh:mm}
    0,                       !- Value Until Time 1
    24:00,                   !- Time 2 {hh:mm}
    0.508715482124601;       !- Value Until Time 2

Schedule:Day:Interval,
    HotelLarge Kitchen Exhaust Fan Balanced Exhaust Fraction Schedule Summer Design Day,  !- Name
    Dimensionless,           !- Schedule Type Limits Name
    No,                      !- Interpolate to Timestep
    07:00,                   !- Time 1 {hh:mm}
    0,                       !- Value Until Time 1
    24:00,                   !- Time 2 {hh:mm}
    0.508715482124601;       !- Value Until Time 2

Schedule:Day:Interval,
    HotelLarge Kitchen Exhaust Fan Balanced Exhaust Fraction Schedule Winter Design Day,  !- Name
    Dimensionless,           !- Schedule Type Limits Name
    No,                      !- Interpolate to Timestep
    07:00,                   !- Time 1 {hh:mm}
    0,                       !- Value Until Time 1
    24:00,                   !- Time 2 {hh:mm}
    0.508715482124601;       !- Value Until Time 2

Schedule:Day:Interval,
    HotelLarge Hours_of_operation Default,  !- Name
    OnOff,                   !- Schedule Type Limits Name
    No,                      !- Interpolate to Timestep
    24:00,                   !- Time 1 {hh:mm}
    1;                       !- Value Until Time 1

Schedule:Day:Interval,
    HotelLarge Hours_of_operation Summer Design Day,  !- Name
    OnOff,                   !- Schedule Type Limits Name
    No,                      !- Interpolate to Timestep
    24:00,                   !- Time 1 {hh:mm}
    1;                       !- Value Until Time 1

Schedule:Day:Interval,
    HotelLarge Hours_of_operation Winter Design Day,  !- Name
    OnOff,                   !- Schedule Type Limits Name
    No,                      !- Interpolate to Timestep
    24:00,                   !- Time 1 {hh:mm}
    1;                       !- Value Until Time 1

Schedule:Day:Interval,
    HotelLarge Adva_OccGuestRoom_HtgSP_Sch Default,  !- Name
    Temperature,             !- Schedule Type Limits Name
    No,                      !- Interpolate to Timestep
    09:00,                   !- Time 1 {hh:mm}
    21.11,                   !- Value Until Time 1
    16:00,                   !- Time 2 {hh:mm}
    18.889,                  !- Value Until Time 2
    24:00,                   !- Time 3 {hh:mm}
    21.11;                   !- Value Until Time 3

Schedule:Day:Interval,
    HotelLarge Adva_OccGuestRoom_HtgSP_Sch Summer Design Day,  !- Name
    Temperature,             !- Schedule Type Limits Name
    No,                      !- Interpolate to Timestep
    24:00,                   !- Time 1 {hh:mm}
    21.11;                   !- Value Until Time 1

Schedule:Day:Interval,
    HotelLarge Adva_OccGuestRoom_HtgSP_Sch Winter Design Day,  !- Name
    Temperature,             !- Schedule Type Limits Name
    No,                      !- Interpolate to Timestep
    24:00,                   !- Time 1 {hh:mm}
    21.11;                   !- Value Until Time 1

Schedule:Day:Interval,
    HotelLarge Adva_OccGuestRoom_ClgSP_Sch Default,  !- Name
    Temperature,             !- Schedule Type Limits Name
    No,                      !- Interpolate to Timestep
    09:00,                   !- Time 1 {hh:mm}
    21.11,                   !- Value Until Time 1
    16:00,                   !- Time 2 {hh:mm}
    23.333,                  !- Value Until Time 2
    24:00,                   !- Time 3 {hh:mm}
    21.11;                   !- Value Until Time 3

Schedule:Day:Interval,
    HotelLarge Adva_OccGuestRoom_ClgSP_Sch Summer Design Day,  !- Name
    Temperature,             !- Schedule Type Limits Name
    No,                      !- Interpolate to Timestep
    24:00,                   !- Time 1 {hh:mm}
    21.11;                   !- Value Until Time 1

Schedule:Day:Interval,
    HotelLarge Adva_OccGuestRoom_ClgSP_Sch Winter Design Day,  !- Name
    Temperature,             !- Schedule Type Limits Name
    No,                      !- Interpolate to Timestep
    24:00,                   !- Time 1 {hh:mm}
    21.11;                   !- Value Until Time 1

Schedule:Day:Interval,
    Air Velocity Schedule Default,  !- Name
    Velocity,                !- Schedule Type Limits Name
    No,                      !- Interpolate to Timestep
    24:00,                   !- Time 1 {hh:mm}
    0.2;                     !- Value Until Time 1

Schedule:Day:Interval,
    Always On Default,       !- Name
    Fractional,              !- Schedule Type Limits Name
    No,                      !- Interpolate to Timestep
    24:00,                   !- Time 1 {hh:mm}
    1;                       !- Value Until Time 1

Schedule:Day:Interval,
    Chilled Water Loop Temp - 44F Default,  !- Name
    Temperature,             !- Schedule Type Limits Name
    No,                      !- Interpolate to Timestep
    24:00,                   !- Time 1 {hh:mm}
    6.66666666666669;        !- Value Until Time 1

Schedule:Day:Interval,
    Clothing Schedule Default Winter Clothes,  !- Name
    Any Number,              !- Schedule Type Limits Name
    No,                      !- Interpolate to Timestep
    24:00,                   !- Time 1 {hh:mm}
    1;                       !- Value Until Time 1

Schedule:Day:Interval,
    Clothing Schedule Summer Clothes,  !- Name
    Any Number,              !- Schedule Type Limits Name
    No,                      !- Interpolate to Timestep
    24:00,                   !- Time 1 {hh:mm}
    0.5;                     !- Value Until Time 1

Schedule:Day:Interval,
    Economizer Max OA Fraction 70 pct Default,  !- Name
    ,                        !- Schedule Type Limits Name
    No,                      !- Interpolate to Timestep
    24:00,                   !- Time 1 {hh:mm}
    0.7;                     !- Value Until Time 1

Schedule:Day:Interval,
    Hot Water Loop Temp - 140F Default,  !- Name
    Temperature,             !- Schedule Type Limits Name
    No,                      !- Interpolate to Timestep
    24:00,                   !- Time 1 {hh:mm}
    60.0000000000001;        !- Value Until Time 1

Schedule:Day:Interval,
    HotelLarge ACTIVITY_SCH Default,  !- Name
    ActivityLevel,           !- Schedule Type Limits Name
    No,                      !- Interpolate to Timestep
    24:00,                   !- Time 1 {hh:mm}
    120;                     !- Value Until Time 1

Schedule:Day:Interval,
    HotelLarge ACTIVITY_SCH Summer Design Day,  !- Name
    ActivityLevel,           !- Schedule Type Limits Name
    No,                      !- Interpolate to Timestep
    24:00,                   !- Time 1 {hh:mm}
    120;                     !- Value Until Time 1

Schedule:Day:Interval,
    HotelLarge ACTIVITY_SCH Winter Design Day,  !- Name
    ActivityLevel,           !- Schedule Type Limits Name
    No,                      !- Interpolate to Timestep
    24:00,                   !- Time 1 {hh:mm}
    120;                     !- Value Until Time 1

Schedule:Day:Interval,
    HotelLarge ALWAYS_ON Default,  !- Name
    Fractional,              !- Schedule Type Limits Name
    No,                      !- Interpolate to Timestep
    24:00,                   !- Time 1 {hh:mm}
    1;                       !- Value Until Time 1

Schedule:Day:Interval,
    HotelLarge ALWAYS_ON Summer Design Day,  !- Name
    Fractional,              !- Schedule Type Limits Name
    No,                      !- Interpolate to Timestep
    24:00,                   !- Time 1 {hh:mm}
    1;                       !- Value Until Time 1

Schedule:Day:Interval,
    HotelLarge ALWAYS_ON Winter Design Day,  !- Name
    Fractional,              !- Schedule Type Limits Name
    No,                      !- Interpolate to Timestep
    24:00,                   !- Time 1 {hh:mm}
    1;                       !- Value Until Time 1

Schedule:Day:Interval,
    HotelLarge BASEMENT_EQUIP_SCH Default,  !- Name
    Fractional,              !- Schedule Type Limits Name
    No,                      !- Interpolate to Timestep
    02:00,                   !- Time 1 {hh:mm}
    0.4,                     !- Value Until Time 1
    06:00,                   !- Time 2 {hh:mm}
    0.3,                     !- Value Until Time 2
    07:00,                   !- Time 3 {hh:mm}
    0.4,                     !- Value Until Time 3
    09:00,                   !- Time 4 {hh:mm}
    0.5,                     !- Value Until Time 4
    13:00,                   !- Time 5 {hh:mm}
    0.4,                     !- Value Until Time 5
    18:00,                   !- Time 6 {hh:mm}
    0.3,                     !- Value Until Time 6
    19:00,                   !- Time 7 {hh:mm}
    0.6,                     !- Value Until Time 7
    20:00,                   !- Time 8 {hh:mm}
    0.8,                     !- Value Until Time 8
    21:00,                   !- Time 9 {hh:mm}
    0.9,                     !- Value Until Time 9
    22:00,                   !- Time 10 {hh:mm}
    0.7,                     !- Value Until Time 10
    23:00,                   !- Time 11 {hh:mm}
    0.6,                     !- Value Until Time 11
    24:00,                   !- Time 12 {hh:mm}
    0.4;                     !- Value Until Time 12

Schedule:Day:Interval,
    HotelLarge BASEMENT_EQUIP_SCH Sat Day,  !- Name
    Fractional,              !- Schedule Type Limits Name
    No,                      !- Interpolate to Timestep
    02:00,                   !- Time 1 {hh:mm}
    0.3,                     !- Value Until Time 1
    06:00,                   !- Time 2 {hh:mm}
    0.2,                     !- Value Until Time 2
    08:00,                   !- Time 3 {hh:mm}
    0.4,                     !- Value Until Time 3
    10:00,                   !- Time 4 {hh:mm}
    0.5,                     !- Value Until Time 4
    11:00,                   !- Time 5 {hh:mm}
    0.4,                     !- Value Until Time 5
    18:00,                   !- Time 6 {hh:mm}
    0.35,                    !- Value Until Time 6
    19:00,                   !- Time 7 {hh:mm}
    0.7,                     !- Value Until Time 7
    22:00,                   !- Time 8 {hh:mm}
    0.8,                     !- Value Until Time 8
    23:00,                   !- Time 9 {hh:mm}
    0.7,                     !- Value Until Time 9
    24:00,                   !- Time 10 {hh:mm}
    0.4;                     !- Value Until Time 10

Schedule:Day:Interval,
    HotelLarge BASEMENT_EQUIP_SCH Summer Design Day,  !- Name
    Fractional,              !- Schedule Type Limits Name
    No,                      !- Interpolate to Timestep
    24:00,                   !- Time 1 {hh:mm}
    1;                       !- Value Until Time 1

Schedule:Day:Interval,
    HotelLarge BASEMENT_EQUIP_SCH Winter Design Day,  !- Name
    Fractional,              !- Schedule Type Limits Name
    No,                      !- Interpolate to Timestep